                                  MODFLOW-2000
      U.S. GEOLOGICAL SURVEY MODULAR FINITE-DIFFERENCE GROUND-WATER FLOW MODEL
                           VERSION 1.19.01 03/25/2010


 This model run produced both GLOBAL and LIST files.  This is the LIST file.

 
 # MODFLOW2000 Basic Package                                                     
 #MODFLOW Data Set Created by Groundwater Vistas                                 
 #
    5 LAYERS        55 ROWS        65 COLUMNS
    1 STRESS PERIOD(S) IN SIMULATION

 BAS6 -- BASIC PACKAGE, VERSION 6, 1/11/2000 INPUT READ FROM UNIT    1
         25 ELEMENTS IN IR ARRAY ARE USED BY BAS

 WEL6 -- WELL PACKAGE, VERSION 6, 1/11/2000 INPUT READ FROM UNIT   12
 # MODFLOW2000 Well Package
     0 Named Parameters         0 List entries
 MAXIMUM OF      0 ACTIVE WELLS AT ONE TIME
 CELL-BY-CELL FLOWS WILL BE SAVED ON UNIT   54
 Deactivating the Well Package because MXACTW=0
          0 ELEMENTS IN RX ARRAY ARE USED BY WEL

 RIV6 -- RIVER PACKAGE, VERSION 6, 1/11/2000 INPUT READ FROM UNIT   14
 # MODFLOW2000 River Package
     0 Named Parameters         0 List entries
 MAXIMUM OF    138 ACTIVE RIVER REACHES AT ONE TIME
 CELL-BY-CELL FLOWS WILL BE SAVED ON UNIT   50
        828 ELEMENTS IN RX ARRAY ARE USED BY RIV

 RCH6 -- RECHARGE PACKAGE, VERSION 6, 1/11/2000 INPUT READ FROM UNIT   18
 # MODFLOW2000 Recharge Package
 No named parameters
 OPTION 3 -- RECHARGE TO HIGHEST ACTIVE NODE IN EACH VERTICAL COLUMN
 CELL-BY-CELL FLOWS WILL BE SAVED ON UNIT   51
       3575 ELEMENTS IN RX ARRAY ARE USED BY RCH
       3575 ELEMENTS IN IR ARRAY ARE USED BY RCH

 LAK3 -- LAKE PACKAGE, VERSION 3.2, 1/29/2010 INPUT READ FROM UNIT 44
  NUMBER OF LAKES=0,  SO LAKE PACKAGE IS BEING TURNED OFF

       4403  ELEMENTS OF RX ARRAY USED OUT OF       4403
          0  ELEMENTS OF RZ ARRAY USED OUT OF          1
       3600  ELEMENTS OF IR ARRAY USED OUT OF       3600
1
 # MODFLOW2000 Basic Package                                                     
 #MODFLOW Data Set Created by Groundwater Vistas                                 



                     BOUNDARY ARRAY FOR LAYER   1
 READING ON UNIT    1 WITH FORMAT: (25I3)              



                     BOUNDARY ARRAY FOR LAYER   2
 READING ON UNIT    1 WITH FORMAT: (25I3)              



                     BOUNDARY ARRAY FOR LAYER   3
 READING ON UNIT    1 WITH FORMAT: (25I3)              



                     BOUNDARY ARRAY FOR LAYER   4
 READING ON UNIT    1 WITH FORMAT: (25I3)              



                     BOUNDARY ARRAY FOR LAYER   5
 READING ON UNIT    1 WITH FORMAT: (25I3)              

 AQUIFER HEAD WILL BE SET TO  999.00     AT ALL NO-FLOW NODES (IBOUND=0).



                       INITIAL HEAD FOR LAYER   1
 READING ON UNIT    1 WITH FORMAT: (10e12.4)           

             INITIAL HEAD =   1000.00     FOR LAYER   2

             INITIAL HEAD =   1000.00     FOR LAYER   3

             INITIAL HEAD =   1000.00     FOR LAYER   4

             INITIAL HEAD =   1000.00     FOR LAYER   5
 # output control file - text based head output

 OUTPUT CONTROL IS SPECIFIED ONLY AT TIME STEPS FOR WHICH OUTPUT IS DESIRED
 HEADS WILL BE SAVED WITH FORMAT: (65E16.8)           
 HEAD PRINT FORMAT CODE IS   0    DRAWDOWN PRINT FORMAT CODE IS   0
 HEADS WILL BE SAVED ON UNIT   30    DRAWDOWNS WILL BE SAVED ON UNIT    0
1
                            STRESS PERIOD NO.    1, LENGTH =   10.00000    
                            -----------------------------------------------

                              NUMBER OF TIME STEPS =     1

                               MULTIPLIER FOR DELT =     1.200

                            INITIAL TIME STEP SIZE =   10.00000    

 REACH NO.  LAYER   ROW   COL     STAGE      CONDUCTANCE     BOTTOM EL.         
 -------------------------------------------------------------------------------
      1      1      6     16       993.0           1001.           992.0    
      2      1      6     17       992.9           1025.           991.9    
      3      1      7     17       992.8           1068.           991.8    
      4      1      7     18       992.7           1121.           991.7    
      5      1      8     18       992.5           1165.           991.5    
      6      1      8     19       992.4           1210.           991.4    
      7      1      9     19       992.3           1262.           991.3    
      8      1      9     20       992.2           1306.           991.2    
      9      1     10     20       992.0           1359.           991.0    
     10      1     10     21       991.9           1402.           990.9    
     11      1     11     21       991.7           1461.           990.7    
     12      1     11     22       991.6           1500.           990.6    
     13      1     12     22       991.5           1544.           990.5    
     14      1     13     22       991.3           1613.           990.3    
     15      1     13     23       991.2           1650.           990.2    
     16      1     14     23       991.1           1694.           990.1    
     17      1     15     23       990.9           1760.           989.9    
     18      1     15     24       990.8           1800.           989.8    
     19      1     16     24       990.7           1845.           989.7    
     20      1     17     24       990.5           1910.           989.5    
     21      1     17     25       990.4           1948.           989.4    
     22      1     18     25       990.2           2005.           989.2    
     23      1     19     25       990.1           2050.           989.1    
     24      1     19     26       990.0           2094.           989.0    
     25      1     19     27       989.8           2147.           988.8    
     26      1     20     27       989.7           2190.           988.7    
     27      1     20     28       989.6           2245.           988.6    
     28      1     21     28       989.5           2288.           988.5    
     29      1     21     29       989.3           2339.           988.3    
     30      1     22     29       989.2           2390.           988.2    
     31      1     22     30       989.1           2431.           988.1    
     32      1     23     30       988.9           2491.           987.9    
     33      1     23     31       988.8           2532.           987.8    
     34      1     24     31       988.7           2573.           987.7    
     35      1     25     31       988.5           2633.           987.5    
     36      1     25     32       988.4           2676.           987.4    
     37      1     26     32       988.2           2732.           987.2    
     38      1     27     32       988.1           2778.           987.1    
     39      1     27     33       988.0           2817.           987.0    
     40      1     28     33       987.8           2886.           986.8    
     41      1     28     34       987.7           2924.           986.7    
     42      1     29     34       987.6           2972.           986.6    
     43      1     30     34       987.4           3021.           986.4    
     44      1     30     35       987.3           3072.           986.3    
     45      1     31     35       987.2           3117.           986.2    
     46      1     31     36       987.0           3168.           986.0    
     47      1     32     36       986.9           3213.           985.9    
     48      1     32     37       986.8           3265.           985.8    
     49      1     32     38       986.6           3312.           985.6    
     50      1     33     38       986.5           3351.           985.5    
     51      1     33     39       986.3           3419.           985.3    
     52      1     34     39       986.2           3466.           985.2    
     53      1     34     40       986.1           3502.           985.1    
     54      1     35     40       986.0           3554.           985.0    
     55      1     36     40       985.8           3626.           984.8    
     56      1     37     40       985.7           3669.           984.7    
     57      1     37     41       985.6           3704.           984.6    
     58      1     38     41       985.4           3778.           984.4    
     59      1     39     41       985.2           3837.           984.2    
     60      1     40     41       985.0           3904.           984.0    
     61      1     41     41       984.8           3966.           983.8    
     62      1     41     42       984.7           4007.           983.7    
     63      1     42     42       984.6           4046.           983.6    
     64      1     43     42       984.4           4119.           983.4    
     65      1     44     42       984.3           4165.           983.3    
     66      1     44     43       984.2           4201.           983.2    
     67      1     45     43       984.0           4263.           983.0    
     68      1     45     44       983.9           4305.           982.9    
     69      1     46     44       983.8           4361.           982.8    
     70      1     46     45       983.6           4403.           982.6    
     71      1     47     45       983.6           4432.           982.6    
     72      1     48     45       983.4           4508.           982.4    
     73      1     49     45       983.2           4575.           982.2    
     74      1     50     45       983.0           4652.           982.0    
     75      1     51     45       982.8           4713.           981.8    
     76      1     52     45       982.6           4785.           981.6    
     77      1     53     45       982.5           4823.           981.5    
     78      1     53     46       982.4           4864.           981.4    
     79      1     54     46       982.2           4927.           981.2    
     80      1     55     46       982.1           4960.           981.1    
     81      1     16     57       987.0           1021.           986.0    
     82      1     17     57       986.9           1075.           985.9    
     83      1     18     57       986.9           1141.           985.9    
     84      1     19     57       986.8           1207.           985.8    
     85      1     20     57       986.7           1275.           985.7    
     86      1     21     57       986.7           1343.           985.7    
     87      1     22     56       986.6           1423.           985.6    
     88      1     22     57       986.6           1389.           985.6    
     89      1     23     56       986.5           1487.           985.5    
     90      1     24     54       986.4           1637.           985.4    
     91      1     24     55       986.4           1587.           985.4    
     92      1     24     56       986.5           1538.           985.5    
     93      1     25     53       986.3           1736.           985.3    
     94      1     25     54       986.3           1677.           985.3    
     95      1     26     51       986.1           1881.           985.1    
     96      1     26     52       986.2           1819.           985.2    
     97      1     26     53       986.2           1778.           985.2    
     98      1     27     50       986.0           1970.           985.0    
     99      1     27     51       986.1           1928.           985.1    
    100      1     28     49       985.9           2066.           984.9    
    101      1     28     50       986.0           2024.           985.0    
    102      1     29     49       985.9           2106.           984.9    
    103      1     30     49       985.8           2181.           984.8    
    104      1     31     48       985.7           2257.           984.7    
    105      1     31     49       985.8           2222.           984.8    
    106      1     32     48       985.7           2320.           984.7    
    107      1     33     47       985.6           2426.           984.6    
    108      1     33     48       985.6           2394.           984.6    
    109      1     34     46       985.5           2519.           984.5    
    110      1     34     47       985.5           2470.           984.5    
    111      1     35     45       985.4           2613.           984.4    
    112      1     35     46       985.4           2564.           984.4    
    113      1     36     44       985.3           2706.           984.3    
    114      1     36     45       985.3           2650.           984.3    
    115      1     37     44       985.2           2751.           984.2    
    116      1     38     43       985.2           2843.           984.2    
    117      1     38     44       985.2           2807.           984.2    
    118      1     39     42       985.1           2949.           984.1    
    119      1     39     43       985.1           2901.           984.1    
    120      1     40     42       985.0           2951.           984.0    
    121      1      6     33       993.9           1047.           992.9    
    122      1      7     32       993.5           1152.           992.5    
    123      1      7     33       993.7           1104.           992.7    
    124      1      8     31       993.2           1265.           992.2    
    125      1      8     32       993.4           1206.           992.4    
    126      1      9     30       992.9           1373.           991.9    
    127      1      9     31       993.0           1319.           992.0    
    128      1     10     29       992.6           1476.           991.6    
    129      1     10     30       992.7           1432.           991.7    
    130      1     11     28       992.2           1589.           991.2    
    131      1     11     29       992.4           1543.           991.4    
    132      1     12     28       992.1           1650.           991.1    
    133      1     13     27       991.7           1750.           990.7    
    134      1     13     28       991.9           1701.           990.9    
    135      1     14     26       991.4           1867.           990.4    
    136      1     14     27       991.6           1809.           990.6    
    137      1     15     25       991.2           1928.           990.2    
    138      1     15     26       991.3           1912.           990.3    

    138 RIVER REACHES



                           RECHARGE
 READING ON UNIT   18 WITH FORMAT: (65e10.4)           
 
 SOLVING FOR HEAD 


    13 CALLS TO PCG ROUTINE FOR TIME STEP   1 IN STRESS PERIOD    1
   285 TOTAL ITERATIONS

 MAXIMUM HEAD CHANGE FOR EACH ITERATION (1 INDICATES THE FIRST INNER ITERATION):

    HEAD CHANGE    HEAD CHANGE    HEAD CHANGE    HEAD CHANGE    HEAD CHANGE 
   LAYER,ROW,COL  LAYER,ROW,COL  LAYER,ROW,COL  LAYER,ROW,COL  LAYER,ROW,COL
 ---------------------------------------------------------------------------
  1  -17.11      0  -9.132      0  -7.339      0  -8.511      0   6.926    
   (  1, 55, 46)  (  4, 39, 39)  (  1, 53, 48)  (  3, 45, 47)  (  3, 45, 47)
  0  -5.977      0   5.766      0  -4.882      0  -7.874      0   10.19    
   (  3, 44, 48)  (  4, 39, 39)  (  1, 53, 48)  (  3, 45, 47)  (  4, 39, 39)
  0  -14.30      0  -11.47      0  -8.497      0  -5.936      0   6.181    
   (  4, 39, 39)  (  4, 38, 39)  (  4, 39, 39)  (  1, 53, 48)  (  1, 54, 48)
  0   9.253      0  -8.040      0  -4.552      0  -7.483      0   7.977    
   (  4, 36, 39)  (  4, 39, 39)  (  4, 25, 28)  (  4, 36, 38)  (  4, 37, 39)
  0  -8.065      0   4.335      0   3.191      0  -2.948      0  -2.604    
   (  4, 37, 39)  (  4, 35, 38)  (  4, 36, 38)  (  4, 37, 39)  (  2, 53, 48)
  1   2.002      0  -1.917      0  -1.844      0   1.348      0   1.174    
   (  2, 53, 48)  (  1, 53, 48)  (  4, 37, 39)  (  4, 39, 38)  (  4, 37, 39)
  0   1.378      0  -1.754      0   1.948      0  -1.104      0  -1.009    
   (  4, 37, 39)  (  2, 48, 40)  (  2, 48, 40)  (  4, 38, 39)  (  4, 40, 36)
  0   1.208      0 -0.8237      0   1.146      0 -0.9488      0  0.9266    
   (  4, 40, 36)  (  2, 53, 42)  (  4, 38, 38)  (  2, 53, 41)  (  4, 37, 38)
  0  -1.162      0  0.9867      0  -1.039      0   1.280      0   1.055    
   (  2, 52, 37)  (  2, 52, 37)  (  2, 52, 37)  (  4, 37, 38)  (  2, 51, 36)
  0   1.240      0  -1.145      0   1.037      0   1.397      0   1.265    
   (  2, 53, 48)  (  1, 53, 48)  (  2, 51, 36)  (  2, 52, 37)  (  4, 39, 39)
  1  0.6865      0   1.024      0  0.8515      0  0.4808      0   1.023    
   (  2, 52, 37)  (  2, 53, 41)  (  2, 52, 40)  (  1, 53, 48)  (  2, 53, 41)
  0  0.9264      0  0.7096      0  0.4323      0  0.5343      0  0.3335    
   (  2, 52, 40)  (  2, 53, 41)  (  2, 51, 42)  (  2, 53, 42)  (  1, 54, 42)
  0  0.2633      0 -0.2838      0 -0.3500      0 -0.4540      0 -0.4180    
   (  2, 53, 42)  (  4, 36, 38)  (  4, 39, 39)  (  2, 48, 40)  (  3, 47, 40)
  0 -0.4885      0 -0.3412      0 -0.2707      0 -0.2363      0  0.3502    
   (  2, 48, 40)  (  2, 52, 40)  (  2, 52, 37)  (  4, 37, 39)  (  1, 53, 48)
  0 -0.2821      0 -0.3855      0 -0.4626      0  0.4837      0 -0.5659    
   (  2, 48, 37)  (  4, 36, 39)  (  2, 48, 37)  (  4, 36, 39)  (  4, 38, 38)
  1  0.4909      0 -0.3067      0 -0.2414      0  0.3175      0 -0.1846    
   (  2, 48, 38)  (  2, 48, 38)  (  2, 53, 48)  (  2, 53, 48)  (  2, 48, 37)
  0  0.2122      0  0.2042      0  0.2919      0  0.2486      0  0.2463    
   (  2, 48, 37)  (  3, 47, 40)  (  2, 48, 40)  (  3, 47, 40)  (  2, 48, 40)
  0  0.1518      0  0.1677      0  0.1140      0 -0.1401      0 -0.1104    
   (  2, 47, 40)  (  2, 52, 40)  (  3, 44, 48)  (  4, 39, 39)  (  3, 44, 48)
  0  0.1246      0 -0.1291      0 -0.1559      0 -0.1595      0 -0.3038    
   (  4, 39, 39)  (  2, 53, 41)  (  1, 53, 48)  (  2, 50, 41)  (  2, 53, 42)
  0 -0.2625      0 -0.2286      0 -0.1638      0 -0.1904      0 -0.1972    
   (  1, 54, 44)  (  2, 53, 43)  (  2, 54, 43)  (  2, 52, 39)  (  1, 54, 40)
  1  0.1454      0  0.1969      0  0.1631      0  0.1571      0  0.1155    
   (  4, 40, 33)  (  2, 52, 39)  (  2, 53, 42)  (  2, 52, 40)  (  1, 53, 48)
  0  0.1533      0  0.1768      0  0.1262      0  0.1162      0 -0.6405E-01
   (  2, 53, 41)  (  2, 52, 40)  (  2, 51, 42)  (  2, 53, 42)  (  2, 53, 41)
  0  0.6147E-01  0 -0.8336E-01  0 -0.6326E-01  0 -0.6950E-01  0 -0.7873E-01
   (  2, 53, 41)  (  2, 53, 41)  (  2, 52, 39)  (  2, 48, 40)  (  2, 52, 37)
  0 -0.1098      0 -0.9908E-01  0 -0.7766E-01  0  0.5988E-01  0 -0.6663E-01
   (  2, 48, 40)  (  3, 47, 40)  (  2, 48, 40)  (  2, 53, 48)  (  1, 53, 48)
  0 -0.6122E-01  0 -0.6624E-01  0 -0.7654E-01  0 -0.8002E-01  0 -0.6455E-01
   (  2, 52, 37)  (  2, 51, 34)  (  4, 39, 34)  (  4, 40, 34)  (  4, 39, 39)
  1 -0.6449E-01  0  0.6404E-01  0  0.5159E-01  0  0.6661E-01  0 -0.5023E-01
   (  2, 48, 38)  (  2, 48, 38)  (  4, 39, 34)  (  2, 53, 48)  (  1, 53, 48)
  0  0.4566E-01  0  0.4175E-01  0  0.4221E-01  0  0.5362E-01  0  0.4514E-01
   (  2, 48, 33)  (  2, 53, 41)  (  2, 48, 40)  (  2, 53, 41)  (  2, 48, 39)
  0  0.3895E-01  0  0.4055E-01  0  0.3626E-01  0  0.3753E-01  0 -0.3155E-01
   (  2, 53, 42)  (  2, 48, 40)  (  2, 47, 40)  (  2, 48, 40)  (  2, 48, 40)
  0 -0.3165E-01  0 -0.4583E-01  0 -0.3941E-01  0 -0.3635E-01  0 -0.7052E-01
   (  3, 47, 40)  (  2, 52, 37)  (  2, 53, 48)  (  2, 54, 43)  (  2, 52, 37)
  0 -0.5373E-01  0 -0.5167E-01  0 -0.3961E-01  0 -0.4120E-01  0  0.6200E-01
   (  1, 54, 44)  (  2, 52, 39)  (  2, 53, 42)  (  2, 48, 36)  (  2, 48, 36)
  1 -0.5503E-01  0  0.3864E-01  0  0.3360E-01  0  0.3637E-01  0  0.2738E-01
   (  2, 48, 36)  (  2, 48, 36)  (  2, 53, 41)  (  2, 52, 39)  (  2, 53, 48)
  0 -0.3228E-01  0  0.3715E-01  0  0.2441E-01  0  0.2082E-01  0  0.1764E-01
   (  2, 53, 48)  (  2, 52, 40)  (  1, 54, 42)  (  2, 48, 39)  (  3, 47, 40)
  0  0.1687E-01  0 -0.2447E-01  0 -0.2082E-01  0 -0.2165E-01  0 -0.2119E-01
   (  2, 48, 40)  (  2, 48, 40)  (  3, 47, 40)  (  2, 48, 40)  (  2, 53, 42)
  0 -0.1802E-01  0 -0.2266E-01  0 -0.1723E-01  0  0.1590E-01  0 -0.1687E-01
   (  2, 48, 39)  (  2, 53, 41)  (  1, 53, 48)  (  2, 53, 48)  (  2, 53, 41)
  0 -0.1373E-01  0 -0.1666E-01  0 -0.1912E-01  0 -0.1887E-01  0 -0.2060E-01
   (  4, 37, 39)  (  4, 39, 39)  (  4, 43, 27)  (  4, 40, 34)  (  4, 39, 39)
  1  0.1584E-01  0  0.1593E-01  0  0.1320E-01  0  0.1405E-01  0 -0.1416E-01
   (  4, 39, 39)  (  2, 52, 37)  (  4, 38, 39)  (  2, 53, 48)  (  1, 53, 48)
  0  0.1121E-01  0  0.1288E-01  0  0.1071E-01  0  0.1230E-01  0  0.1044E-01
   (  1, 53, 48)  (  2, 53, 41)  (  2, 48, 39)  (  2, 53, 41)  (  2, 48, 40)
  0  0.8180E-02  0  0.1113E-01  0  0.9890E-02  0  0.1006E-01  0 -0.7154E-02
   (  2, 47, 40)  (  2, 48, 40)  (  3, 47, 40)  (  2, 48, 40)  (  2, 48, 39)
  0 -0.7511E-02  0 -0.1173E-01  0 -0.1022E-01  0 -0.1412E-01  0  0.1176E-01
   (  2, 47, 40)  (  2, 52, 37)  (  2, 54, 43)  (  2, 52, 37)  (  2, 53, 48)
  0 -0.1125E-01  0 -0.1133E-01  0 -0.1004E-01  0 -0.9459E-02  0 -0.1231E-01
   (  2, 53, 48)  (  2, 49, 40)  (  2, 48, 39)  (  2, 48, 36)  (  4, 40, 35)
  1 -0.1067E-01  0  0.9600E-02  0  0.7639E-02  0  0.8749E-02  0  0.7872E-02
   (  2, 48, 36)  (  2, 48, 36)  (  1, 54, 44)  (  2, 53, 41)  (  2, 53, 48)
  0 -0.8321E-02  0  0.8679E-02  0  0.5822E-02  0  0.6580E-02  0  0.4523E-02
   (  2, 53, 48)  (  2, 53, 41)  (  1, 54, 42)  (  2, 52, 37)  (  3, 47, 40)
  0  0.4316E-02  0 -0.6608E-02  0 -0.5498E-02  0 -0.5850E-02  0 -0.4631E-02
   (  2, 48, 40)  (  2, 48, 40)  (  3, 47, 40)  (  2, 48, 40)  (  2, 53, 42)
  0 -0.4531E-02  0 -0.5419E-02  0 -0.4767E-02  0  0.4318E-02  0 -0.5047E-02
   (  2, 48, 40)  (  2, 53, 41)  (  2, 48, 39)  (  2, 53, 48)  (  1, 53, 48)
  0 -0.4011E-02  0 -0.4294E-02  0  0.4568E-02  0 -0.4476E-02  0 -0.5346E-02
   (  4, 37, 39)  (  4, 40, 36)  (  2, 52, 38)  (  2, 52, 37)  (  4, 39, 39)
  1  0.4534E-02  0  0.3307E-02  0  0.3800E-02  0  0.3612E-02  0 -0.3842E-02
   (  4, 39, 39)  (  2, 52, 37)  (  4, 38, 39)  (  2, 53, 48)  (  1, 53, 48)
  0  0.3340E-02  0  0.3495E-02  0  0.3501E-02  0  0.3141E-02  0 -0.2648E-02
   (  1, 53, 48)  (  2, 53, 41)  (  2, 48, 39)  (  2, 53, 41)  (  4, 39, 39)
  0  0.2181E-02  0  0.3015E-02  0  0.2680E-02  0  0.2987E-02  0 -0.2151E-02
   (  2, 47, 40)  (  2, 48, 40)  (  3, 47, 40)  (  2, 48, 40)  (  2, 48, 40)
  0 -0.2064E-02  0 -0.3001E-02  0 -0.2531E-02  0 -0.4049E-02  0 -0.2946E-02
   (  3, 47, 40)  (  2, 52, 37)  (  1, 54, 42)  (  2, 52, 37)  (  1, 54, 44)
  0  0.3269E-02  0 -0.2725E-02  0 -0.2322E-02  0 -0.2561E-02  0 -0.2825E-02
   (  1, 53, 48)  (  2, 53, 48)  (  2, 48, 39)  (  2, 48, 36)  (  4, 40, 35)
  1  0.2454E-02  0  0.2641E-02  0  0.2188E-02  0  0.2474E-02  0 -0.2639E-02
   (  4, 40, 35)  (  2, 53, 42)  (  2, 51, 42)  (  2, 53, 41)  (  1, 53, 48)
  0  0.1809E-02  0  0.2294E-02  0  0.1453E-02  0  0.1724E-02  0  0.1237E-02
   (  2, 54, 43)  (  2, 52, 37)  (  1, 54, 42)  (  2, 52, 37)  (  3, 47, 40)
  0  0.1200E-02  0 -0.1789E-02  0 -0.1447E-02  0 -0.1572E-02  0 -0.1120E-02
   (  2, 48, 40)  (  2, 48, 40)  (  3, 47, 40)  (  2, 48, 40)  (  2, 47, 40)
  0 -0.1205E-02  0 -0.1290E-02  0 -0.1380E-02  0  0.1194E-02  0 -0.1288E-02
   (  2, 48, 40)  (  2, 53, 41)  (  2, 48, 39)  (  2, 53, 48)  (  1, 53, 48)
  0 -0.1114E-02  0 -0.1086E-02  0 -0.1307E-02  0 -0.1085E-02  0 -0.1423E-02
   (  4, 37, 39)  (  2, 53, 41)  (  4, 38, 39)  (  4, 40, 34)  (  4, 39, 39)
  1  0.1268E-02  0  0.1094E-02  0  0.1089E-02  0  0.9726E-03  0 -0.1037E-02
   (  4, 39, 39)  (  2, 48, 38)  (  4, 38, 39)  (  2, 53, 48)  (  1, 53, 48)
  0  0.9417E-03  0  0.9351E-03  0  0.1054E-02  0  0.7605E-03  1 -0.5896E-03
   (  1, 53, 48)  (  2, 53, 41)  (  2, 48, 39)  (  2, 53, 41)  (  4, 39, 39)

 MAXIMUM RESIDUAL FOR EACH ITERATION (1 INDICATES THE FIRST INNER ITERATION):

    RESIDUAL       RESIDUAL       RESIDUAL       RESIDUAL       RESIDUAL    
   LAYER,ROW,COL  LAYER,ROW,COL  LAYER,ROW,COL  LAYER,ROW,COL  LAYER,ROW,COL
 ---------------------------------------------------------------------------
  1 -0.1629E+05  0   7282.      0   9241.      0   5318.      0   8068.    
   (  1, 26, 54)  (  1,  9, 23)  (  1,  9, 23)  (  1,  8, 18)  (  1,  8, 24)
  0   5933.      0 -0.1131E+05  0   7391.      0  0.1534E+05  0   9953.    
   (  2, 27, 63)  (  1,  8, 24)  (  1,  9, 23)  (  1,  8, 24)  (  1,  8, 24)
  0 -0.1206E+05  0   8414.      0  0.1216E+05  0  0.1120E+05  0  0.1424E+05
   (  2, 28, 62)  (  2,  9, 20)  (  2, 28, 62)  (  2, 28, 62)  (  1,  9, 23)
  0  0.1188E+05  0  -9802.      0  0.1111E+05  0  -6964.      0   7487.    
   (  1,  9, 23)  (  1,  9, 23)  (  2, 28, 62)  (  1,  8, 24)  (  1,  7, 20)
  0  -9221.      0  -4545.      0  -8016.      0  -4021.      0  -2670.    
   (  1,  9, 23)  (  1,  6, 19)  (  1,  8, 24)  (  1,  8, 24)  (  1,  2, 24)
  1   2234.      0   1455.      0   1347.      0   1390.      0   1995.    
   (  1, 25, 54)  (  1, 25, 53)  (  2, 14, 51)  (  2, 14, 51)  (  2,  9, 23)
  0   1497.      0  -1274.      0   1436.      0  -1582.      0   1176.    
   (  2,  9, 23)  (  1, 26, 52)  (  2,  8, 25)  (  2,  9, 23)  (  1,  9, 18)
  0   1659.      0   1342.      0  -1346.      0   1415.      0   1312.    
   (  2, 17, 44)  (  2, 17, 44)  (  1, 26, 54)  (  2, 25, 53)  (  2, 25, 53)
  0  -1202.      0   1379.      0   1526.      0  -1227.      0  -1614.    
   (  2, 28, 62)  (  1, 26, 54)  (  1, 26, 54)  (  2, 23, 55)  (  2, 23, 55)
  0  -1284.      0   1261.      0  -1285.      0  -1082.      0   923.0    
   (  2, 23, 55)  (  2,  9, 23)  (  1, 26, 54)  (  1, 26, 54)  (  2, 23, 55)
  1   806.7      0   786.9      0  -837.8      0   835.2      0   658.7    
   (  1, 25, 54)  (  2, 27, 63)  (  2,  9, 20)  (  2,  8, 21)  (  2, 26, 55)
  0  -608.9      0   498.6      0  -490.0      0   365.5      0  -330.3    
   (  1, 26, 52)  (  2,  9, 20)  (  2,  8, 21)  (  2,  8, 25)  (  2, 27, 63)
  0   349.6      0   362.6      0   435.0      0   434.7      0   467.7    
   (  1, 26, 52)  (  2, 27, 63)  (  2, 17, 44)  (  2, 28, 62)  (  2, 28, 62)
  0   419.8      0   497.2      0   357.3      0   431.9      0   457.1    
   (  2,  8, 25)  (  2, 27, 63)  (  2,  9, 23)  (  2,  9, 23)  (  2,  8, 21)
  0   428.4      0   456.5      0   557.6      0   490.8      0  -729.6    
   (  2, 25, 54)  (  1, 26, 52)  (  1, 25, 54)  (  1, 24, 55)  (  2, 26, 54)
  1  -484.5      0   379.7      0  -321.3      0   275.1      0   257.4    
   (  2, 26, 54)  (  2, 25, 53)  (  2, 53, 48)  (  2, 10, 27)  (  2, 27, 59)
  0  -316.5      0  -288.8      0   200.9      0   177.2      0   156.6    
   (  2, 25, 53)  (  2, 25, 53)  (  2,  8, 28)  (  2, 15, 37)  (  2, 23, 61)
  0   198.0      0   246.2      0   281.9      0   213.1      0   143.7    
   (  2, 22, 56)  (  2, 24, 54)  (  2, 24, 54)  (  2, 24, 54)  (  2,  8, 28)
  0   188.2      0  -222.0      0  -266.2      0  -261.7      0   315.5    
   (  2, 14, 49)  (  2, 24, 54)  (  2, 24, 54)  (  2, 24, 54)  (  2, 25, 55)
  0   213.3      0   242.7      0   247.7      0  -305.2      0  -490.1    
   (  2, 25, 55)  (  2,  8, 24)  (  2, 24, 54)  (  2, 25, 55)  (  2,  8, 24)
  1  -318.2      0   175.0      0   152.2      0   185.1      0   159.3    
   (  2,  8, 24)  (  2, 24, 54)  (  2,  8, 24)  (  2,  8, 24)  (  2, 25, 55)
  0   150.3      0  -136.4      0  -108.8      0   87.85      0   74.85    
   (  2, 25, 55)  (  2,  8, 23)  (  2, 25, 53)  (  2, 14, 49)  (  2,  9, 24)
  0   89.87      0   111.8      0   116.6      0   78.80      0   93.20    
   (  2, 24, 54)  (  2, 23, 55)  (  2, 23, 55)  (  2, 22, 56)  (  2, 27, 63)
  0   71.59      0   108.0      0   131.9      0   118.3      0   77.01    
   (  2, 22, 62)  (  2,  9, 23)  (  2,  9, 23)  (  2,  9, 23)  (  2, 14, 32)
  0   74.16      0  -111.6      0   108.1      0   127.7      0   144.3    
   (  2, 10, 22)  (  2, 27, 63)  (  2,  8, 24)  (  2, 24, 54)  (  2, 27, 63)
  1   110.3      0   64.82      0   64.81      0   71.14      0  -68.60    
   (  2, 23, 54)  (  2, 17, 44)  (  2,  9, 31)  (  2,  9, 31)  (  2, 23, 54)
  0  -69.83      0  -67.64      0   52.81      0   41.73      0   34.09    
   (  2, 23, 54)  (  2, 22, 56)  (  2,  9, 23)  (  2,  9, 23)  (  2, 22, 56)
  0   53.90      0   67.87      0   62.58      0   39.49      0  -37.52    
   (  2, 23, 54)  (  2, 24, 54)  (  2, 24, 54)  (  2, 23, 55)  (  2, 27, 63)
  0  -37.11      0  -53.87      0  -62.36      0   65.07      0   68.09    
   (  2,  9, 22)  (  2, 25, 53)  (  2, 25, 53)  (  2, 25, 55)  (  2, 25, 55)
  0  -47.71      0   67.29      0   77.32      0   86.17      0  -109.8    
   (  2,  7, 25)  (  2,  8, 24)  (  2, 23, 55)  (  2, 23, 55)  (  2,  8, 24)
  1  -78.38      0   38.83      0   39.38      0   45.97      0   38.42    
   (  2,  8, 24)  (  2, 24, 54)  (  2,  8, 24)  (  2,  8, 24)  (  2, 25, 55)
  0   38.57      0  -38.46      0  -21.79      0   17.13      0   20.22    
   (  2, 25, 55)  (  2,  8, 23)  (  2,  8, 23)  (  2, 19, 49)  (  2,  9, 24)
  0   23.67      0   26.77      0   24.75      0   16.12      0   20.16    
   (  2, 24, 54)  (  2, 23, 54)  (  2, 23, 55)  (  2, 21, 56)  (  2,  8, 24)
  0   21.35      0   25.69      0   25.08      0   20.39      0   19.08    
   (  2,  8, 24)  (  2,  9, 23)  (  2,  9, 23)  (  2, 10, 29)  (  2, 10, 29)
  0   20.50      0   25.62      0   25.12      0   26.74      0   26.52    
   (  2,  9, 31)  (  2,  8, 25)  (  2,  8, 24)  (  2, 24, 54)  (  2, 24, 54)
  1   20.17      0   11.18      0   17.27      0   19.24      0   16.80    
   (  2, 24, 54)  (  2, 25, 53)  (  2,  9, 31)  (  2,  9, 31)  (  2,  9, 31)
  0  -15.59      0  -15.74      0   13.05      0   10.45      0   9.347    
   (  2, 22, 56)  (  2, 22, 56)  (  2,  9, 24)  (  2,  9, 23)  (  2,  8, 26)
  0   12.78      0   15.74      0   14.62      0   9.815      0   9.380    
   (  2, 21, 56)  (  2, 23, 54)  (  2, 23, 55)  (  2, 25, 53)  (  2,  8, 23)
  0  -9.380      0  -13.46      0  -15.62      0   16.45      0   13.46    
   (  2,  9, 22)  (  2, 25, 53)  (  2, 25, 53)  (  2, 25, 55)  (  2, 25, 55)
  0  -11.49      0   14.65      0   18.94      0   20.71      0  -23.30    
   (  2,  7, 25)  (  2,  8, 24)  (  2, 23, 55)  (  2, 24, 54)  (  2,  8, 24)
  1   16.57      0   9.064      0   9.490      0   9.886      0   9.717    
   (  2, 24, 54)  (  2, 24, 54)  (  2,  8, 24)  (  2,  8, 24)  (  2, 25, 55)
  0   9.967      0  -10.26      0  -6.172      0   5.296      0   5.452    
   (  2, 25, 55)  (  2,  8, 23)  (  2,  8, 28)  (  2, 18, 43)  (  2,  8, 23)
  0   6.327      0   7.259      0   6.172      0   4.658      0   5.663    
   (  2, 23, 54)  (  2, 23, 54)  (  2, 23, 55)  (  2, 18, 56)  (  2,  8, 24)
  0   5.666      0   6.406      0   7.138      0   6.221      0   5.700    
   (  2,  8, 22)  (  2,  9, 23)  (  2,  9, 23)  (  2, 10, 29)  (  2, 10, 29)
  0   6.077      0   6.865      0   6.603      0   6.349      0   6.756    
   (  2,  9, 31)  (  2, 10, 32)  (  2,  8, 24)  (  2, 24, 54)  (  2,  8, 22)
  1   5.515      0   3.107      0   5.137      0   5.144      0   4.184    
   (  2,  8, 22)  (  2, 11, 33)  (  2, 10, 32)  (  2,  9, 31)  (  2,  9, 31)
  0   3.985      0  -3.962      0   3.602      0   3.115      0   2.751    
   (  2, 10, 29)  (  2, 21, 56)  (  2,  9, 24)  (  2,  7, 29)  (  2, 11, 33)
  0   3.352      0   3.988      0   3.819      0   2.693      0   2.771    
   (  2, 21, 56)  (  2, 23, 55)  (  2, 23, 54)  (  2, 25, 53)  (  2,  8, 23)
  0   2.722      0  -3.491      0  -4.383      0   4.196      0   3.270    
   (  2, 12, 35)  (  2, 23, 55)  (  2,  8, 23)  (  2, 25, 55)  (  2, 25, 55)
  0  -3.341      0   3.929      0   4.759      0   5.266      0  -5.829    
   (  2,  9, 21)  (  2, 23, 55)  (  2, 23, 55)  (  2, 24, 54)  (  2,  8, 24)
  1   4.334      0   2.279      0   2.639      0   2.369      0   2.492    
   (  2, 24, 54)  (  2, 23, 54)  (  2,  8, 24)  (  2, 23, 56)  (  2, 25, 55)
  0   2.613      0  -2.822      0   1.873      0   1.637      0   1.626    
   (  2, 25, 55)  (  2,  8, 23)  (  2, 18, 43)  (  2, 18, 43)  (  2,  8, 23)
  0   1.752      0   1.977      0   1.628      0   1.299      0   1.595    
   (  2, 23, 54)  (  2, 23, 54)  (  2, 23, 55)  (  2, 18, 56)  (  2,  8, 24)
  0   1.761      0   1.664      0   1.701      0   1.802      0   1.630    
   (  2,  8, 22)  (  2,  8, 21)  (  2,  9, 23)  (  2, 10, 29)  (  2, 10, 29)
  0   1.850      0   2.159      0   1.867      0   1.873      0   1.962    
   (  2, 10, 32)  (  2, 10, 32)  (  2,  8, 24)  (  2,  8, 22)  (  2,  8, 22)
  1   1.589      0  0.8991      0   1.630      0   1.382      0  -1.151    
   (  2,  8, 22)  (  2, 11, 33)  (  2, 10, 32)  (  2,  9, 31)  (  2, 27, 63)
  0   1.186      0  -1.032      0  0.9882      0  0.9395      1  0.7095    
   (  2, 10, 29)  (  2, 21, 56)  (  2,  8, 21)  (  2,  7, 29)  (  2,  7, 29)



 OUTPUT CONTROL FOR STRESS PERIOD    1   TIME STEP   1
    SAVE HEAD FOR ALL LAYERS

 HEAD WILL BE SAVED ON UNIT   30 AT END OF TIME STEP   1, STRESS PERIOD    1
1
  VOLUMETRIC BUDGET FOR ENTIRE MODEL AT END OF TIME STEP  1 IN STRESS PERIOD   1
  ------------------------------------------------------------------------------

     CUMULATIVE VOLUMES      L**3       RATES FOR THIS TIME STEP      L**3/T
     ------------------                 ------------------------

           IN:                                      IN:
           ---                                      ---
             STORAGE =           0.0000               STORAGE =           0.0000
       CONSTANT HEAD =        9211.3398         CONSTANT HEAD =         921.1340
       RIVER LEAKAGE =      445545.6562         RIVER LEAKAGE =       44554.5664
            RECHARGE =      189914.4688              RECHARGE =       18991.4473

            TOTAL IN =      644671.5000              TOTAL IN =       64467.1484

          OUT:                                     OUT:
          ----                                     ----
             STORAGE =           0.0000               STORAGE =           0.0000
       CONSTANT HEAD =         174.9715         CONSTANT HEAD =          17.4971
       RIVER LEAKAGE =      645276.3750         RIVER LEAKAGE =       64527.6367
            RECHARGE =           0.0000              RECHARGE =           0.0000

           TOTAL OUT =      645451.3750             TOTAL OUT =       64545.1328

            IN - OUT =        -779.8750              IN - OUT =         -77.9844

 PERCENT DISCREPANCY =          -0.12     PERCENT DISCREPANCY =          -0.12






          TIME SUMMARY AT END OF TIME STEP   1 IN STRESS PERIOD    1
                    SECONDS     MINUTES      HOURS       DAYS        YEARS
                    -----------------------------------------------------------
   TIME STEP LENGTH 8.64000E+05  14400.      240.00      10.000     2.73785E-02
 STRESS PERIOD TIME 8.64000E+05  14400.      240.00      10.000     2.73785E-02
         TOTAL TIME 8.64000E+05  14400.      240.00      10.000     2.73785E-02
1
